MODEL 0
REMARK DSDP RESULT:      -9.662387
MODEL 0
REMARK DSDP RESULT:      -9.630635
REMARK  Name = 
REMARK  3 active torsions:
REMARK  status: ('A' for Active; 'I' for Inactive)
REMARK    1  A    between atoms: C_2  and  C_9
REMARK    2  A    between atoms: C_14  and  C_15
REMARK    3  A    between atoms: C_15  and  N_16
REMARK                            x       y       z     vdW  Elec       q    Type
REMARK                         _______ _______ _______ _____ _____    ______ ____
ROOT
ATOM      1  C   UNL     1     -23.539   9.621 -30.530  0.00  0.00    +0.000 A 
ATOM      2  C   UNL     1     -23.695  10.926 -30.045  0.00  0.00    +0.000 A 
ATOM      3  C   UNL     1     -23.037  11.995 -30.667  0.00  0.00    +0.000 A 
ATOM      4  C   UNL     1     -22.790   9.414 -31.693  0.00  0.00    +0.000 A 
ATOM      5  C   UNL     1     -22.095  10.463 -32.284  0.00  0.00    +0.000 A 
ATOM      6  C   UNL     1     -22.199  11.763 -31.764  0.00  0.00    +0.000 A 
ENDROOT
BRANCH   1   8
ATOM      7  O   UNL     1     -24.886   8.787 -28.827  0.00  0.00    +0.000 OA
ATOM      8  C   UNL     1     -24.241   8.506 -29.840  0.00  0.00    +0.000 C 
ATOM      9  N   UNL     1     -24.149   7.197 -30.326  0.00  0.00    +0.000 N 
ATOM     10  C   UNL     1     -25.054   6.184 -29.771  0.00  0.00    +0.000 C 
ATOM     11  C   UNL     1     -24.379   4.808 -29.622  0.00  0.00    +0.000 C 
ATOM     12  N   UNL     1     -23.734   4.340 -30.863  0.00  0.00    +0.000 NA
ATOM     13  C   UNL     1     -22.750   5.348 -31.290  0.00  0.00    +0.000 C 
ATOM     14  C   UNL     1     -23.357   6.748 -31.480  0.00  0.00    +0.000 C 
ATOM     15  H   UNL     1     -24.450   4.260 -31.586  0.00  0.00    +0.000 HD
ENDBRANCH   1   8
BRANCH   6  16
ATOM     16  C   UNL     1     -21.453  12.888 -32.446  0.00  0.00    +0.000 C 
BRANCH  16  17
ATOM     17  N   UNL     1     -20.476  12.329 -33.367  0.00  0.00    +0.000 N 
ATOM     18  C   UNL     1     -19.207  12.797 -33.305  0.00  0.00    +0.000 A 
ATOM     19  N   UNL     1     -18.706  13.529 -32.311  0.00  0.00    +0.000 NA
ATOM     20  N   UNL     1     -17.513  13.927 -32.777  0.00  0.00    +0.000 N 
ATOM     21  C   UNL     1     -17.248  13.515 -34.057  0.00  0.00    +0.000 A 
ATOM     22  C   UNL     1     -16.218  13.842 -34.945  0.00  0.00    +0.000 A 
ATOM     23  C   UNL     1     -16.214  13.177 -36.176  0.00  0.00    +0.000 A 
ATOM     24  C   UNL     1     -17.168  12.202 -36.473  0.00  0.00    +0.000 A 
ATOM     25  C   UNL     1     -18.214  11.928 -35.583  0.00  0.00    +0.000 A 
ATOM     26  C   UNL     1     -18.276  12.642 -34.371  0.00  0.00    +0.000 A 
ATOM     27  H   UNL     1     -20.852  12.191 -34.300  0.00  0.00    +0.000 HD
ATOM     28  H   UNL     1     -16.934  14.505 -32.179  0.00  0.00    +0.000 HD
ENDBRANCH  16  17
ENDBRANCH   6  16
TORSDOF 3
ENDMDL
ENDMDL
