MODEL 0
REMARK DSDP RESULT:      -9.510917
MODEL 0
REMARK DSDP RESULT:      -9.630635
REMARK  Name = 
REMARK  3 active torsions:
REMARK  status: ('A' for Active; 'I' for Inactive)
REMARK    1  A    between atoms: C_2  and  C_9
REMARK    2  A    between atoms: C_14  and  C_15
REMARK    3  A    between atoms: C_15  and  N_16
REMARK                            x       y       z     vdW  Elec       q    Type
REMARK                         _______ _______ _______ _____ _____    ______ ____
ROOT
ATOM      1  C   UNL     1       0.307  22.869  27.460  0.00  0.00    +0.000 A 
ATOM      2  C   UNL     1      -1.028  22.931  27.881  0.00  0.00    +0.000 A 
ATOM      3  C   UNL     1      -1.909  21.881  27.594  0.00  0.00    +0.000 A 
ATOM      4  C   UNL     1       0.767  21.709  26.830  0.00  0.00    +0.000 A 
ATOM      5  C   UNL     1      -0.115  20.686  26.498  0.00  0.00    +0.000 A 
ATOM      6  C   UNL     1      -1.467  20.771  26.863  0.00  0.00    +0.000 A 
ENDROOT
BRANCH   1   8
ATOM      7  O   UNL     1       0.763  24.913  28.472  0.00  0.00    +0.000 OA
ATOM      8  C   UNL     1       1.215  24.007  27.769  0.00  0.00    +0.000 C 
ATOM      9  N   UNL     1       2.518  24.036  27.262  0.00  0.00    +0.000 N 
ATOM     10  C   UNL     1       3.450  25.037  27.796  0.00  0.00    +0.000 C 
ATOM     11  C   UNL     1       4.390  25.603  26.716  0.00  0.00    +0.000 C 
ATOM     12  N   UNL     1       5.094  24.556  25.952  0.00  0.00    +0.000 NA
ATOM     13  C   UNL     1       4.094  23.666  25.342  0.00  0.00    +0.000 C 
ATOM     14  C   UNL     1       3.128  23.045  26.365  0.00  0.00    +0.000 C 
ATOM     15  H   UNL     1       5.660  24.010  26.603  0.00  0.00    +0.000 HD
ENDBRANCH   1   8
BRANCH   6  16
ATOM     16  C   UNL     1      -2.395  19.629  26.513  0.00  0.00    +0.000 C 
BRANCH  16  17
ATOM     17  N   UNL     1      -2.728  18.892  27.721  0.00  0.00    +0.000 N 
ATOM     18  C   UNL     1      -2.845  17.546  27.631  0.00  0.00    +0.000 A 
ATOM     19  N   UNL     1      -2.429  16.807  26.603  0.00  0.00    +0.000 NA
ATOM     20  N   UNL     1      -2.938  15.592  26.857  0.00  0.00    +0.000 N 
ATOM     21  C   UNL     1      -3.707  15.535  27.990  0.00  0.00    +0.000 A 
ATOM     22  C   UNL     1      -4.527  14.527  28.507  0.00  0.00    +0.000 A 
ATOM     23  C   UNL     1      -5.131  14.780  29.743  0.00  0.00    +0.000 A 
ATOM     24  C   UNL     1      -4.880  15.963  30.440  0.00  0.00    +0.000 A 
ATOM     25  C   UNL     1      -4.090  16.973  29.877  0.00  0.00    +0.000 A 
ATOM     26  C   UNL     1      -3.536  16.766  28.600  0.00  0.00    +0.000 A 
ATOM     27  H   UNL     1      -3.432  19.361  28.284  0.00  0.00    +0.000 HD
ATOM     28  H   UNL     1      -2.745  14.845  26.200  0.00  0.00    +0.000 HD
ENDBRANCH  16  17
ENDBRANCH   6  16
TORSDOF 3
ENDMDL
ENDMDL
