MODEL 0
REMARK DSDP RESULT:      -9.836212
REMARK  Name = 
REMARK  5 active torsions:
REMARK  status: ('A' for Active; 'I' for Inactive)
REMARK    1  A    between atoms: N_1  and  C_2
REMARK    2  A    between atoms: C_5  and  C_6
REMARK    3  A    between atoms: C_10  and  C_11
REMARK    4  A    between atoms: C_13  and  S_14
REMARK    5  A    between atoms: S_14  and  N_15
REMARK                            x       y       z     vdW  Elec       q    Type
REMARK                         _______ _______ _______ _____ _____    ______ ____
ROOT
ATOM      1  C   UNL     1      -5.609 -21.146  46.231  0.00  0.00    +0.000 A 
ATOM      2  C   UNL     1      -5.980 -20.033  45.396  0.00  0.00    +0.000 A 
ATOM      3  C   UNL     1      -5.142 -18.877  45.285  0.00  0.00    +0.000 A 
ATOM      4  C   UNL     1      -3.905 -18.880  45.928  0.00  0.00    +0.000 A 
ATOM      5  C   UNL     1      -3.537 -19.971  46.734  0.00  0.00    +0.000 A 
ATOM      6  C   UNL     1      -4.383 -21.077  46.904  0.00  0.00    +0.000 A 
ENDROOT
BRANCH   1   8
ATOM      7  N   UNL     1      -6.968 -23.188  45.547  0.00  0.00    +0.000 N 
ATOM      8  C   UNL     1      -6.582 -22.285  46.561  0.00  0.00    +0.000 C 
ATOM      9  O   UNL     1      -6.918 -22.369  47.743  0.00  0.00    +0.000 OA
ATOM     10  H   UNL     1      -6.669 -22.993  44.598  0.00  0.00    +0.000 HD
BRANCH   7  11
ATOM     11  C   UNL     1      -7.720 -24.408  45.711  0.00  0.00    +0.000 A 
ATOM     12  C   UNL     1      -8.642 -24.615  46.739  0.00  0.00    +0.000 A 
ATOM     13  C   UNL     1      -9.308 -25.845  46.892  0.00  0.00    +0.000 A 
ATOM     14  C   UNL     1      -9.090 -26.898  46.028  0.00  0.00    +0.000 A 
ATOM     15  C   UNL     1      -8.184 -26.711  44.969  0.00  0.00    +0.000 A 
ATOM     16  C   UNL     1      -7.514 -25.475  44.812  0.00  0.00    +0.000 A 
BRANCH  14  17
ATOM     17  C   UNL     1      -9.769 -28.188  46.208  0.00  0.00    +0.000 C 
ATOM     18  N   UNL     1     -10.310 -29.216  46.360  0.00  0.00    +0.000 NA
ENDBRANCH  14  17
ENDBRANCH   7  11
ENDBRANCH   1   8
BRANCH   3  19
ATOM     19  S   UNL     1      -5.556 -17.311  44.338  0.00  0.00    +0.000 S 
ATOM     20  O   UNL     1      -6.059 -16.367  45.327  0.00  0.00    +0.000 OA
ATOM     21  O   UNL     1      -4.377 -17.018  43.539  0.00  0.00    +0.000 OA
BRANCH  19  22
ATOM     22  N   UNL     1      -6.931 -17.823  43.258  0.00  0.00    +0.000 N 
ATOM     23  C   UNL     1      -8.353 -17.347  43.557  0.00  0.00    +0.000 A 
ATOM     24  C   UNL     1      -8.837 -16.170  42.950  0.00  0.00    +0.000 A 
ATOM     25  C   UNL     1     -10.077 -15.569  43.256  0.00  0.00    +0.000 A 
ATOM     26  C   UNL     1     -11.052 -16.338  43.850  0.00  0.00    +0.000 A 
ATOM     27  C   UNL     1     -10.738 -17.666  44.138  0.00  0.00    +0.000 A 
ATOM     28  C   UNL     1      -9.394 -18.157  44.045  0.00  0.00    +0.000 A 
ATOM     29  C   UNL     1      -8.377 -15.951  41.524  0.00  0.00    +0.000 C 
ATOM     30  C   UNL     1      -6.885 -16.019  41.539  0.00  0.00    +0.000 C 
ATOM     31  C   UNL     1      -6.502 -17.460  41.864  0.00  0.00    +0.000 C 
ENDBRANCH  19  22
ENDBRANCH   3  19
TORSDOF 5
ENDMDL
