MODEL 0
REMARK DSDP RESULT:      -9.885438
REMARK  Name = 
REMARK  5 active torsions:
REMARK  status: ('A' for Active; 'I' for Inactive)
REMARK    1  A    between atoms: N_1  and  C_2
REMARK    2  A    between atoms: C_5  and  C_6
REMARK    3  A    between atoms: C_10  and  C_11
REMARK    4  A    between atoms: C_13  and  S_14
REMARK    5  A    between atoms: S_14  and  N_15
REMARK                            x       y       z     vdW  Elec       q    Type
REMARK                         _______ _______ _______ _____ _____    ______ ____
ROOT
ATOM      1  C   UNL     1      32.377   5.627   4.588  0.00  0.00    +0.000 A 
ATOM      2  C   UNL     1      31.691   6.891   4.675  0.00  0.00    +0.000 A 
ATOM      3  C   UNL     1      30.821   7.337   3.628  0.00  0.00    +0.000 A 
ATOM      4  C   UNL     1      30.569   6.482   2.555  0.00  0.00    +0.000 A 
ATOM      5  C   UNL     1      31.230   5.245   2.475  0.00  0.00    +0.000 A 
ATOM      6  C   UNL     1      32.137   4.831   3.462  0.00  0.00    +0.000 A 
ENDROOT
BRANCH   1   8
ATOM      7  N   UNL     1      33.903   6.140   6.561  0.00  0.00    +0.000 N 
ATOM      8  C   UNL     1      33.490   5.229   5.564  0.00  0.00    +0.000 C 
ATOM      9  O   UNL     1      33.915   4.079   5.443  0.00  0.00    +0.000 OA
ATOM     10  H   UNL     1      33.519   7.078   6.536  0.00  0.00    +0.000 HD
BRANCH   7  11
ATOM     11  C   UNL     1      34.796   5.876   7.663  0.00  0.00    +0.000 A 
ATOM     12  C   UNL     1      35.063   6.797   8.678  0.00  0.00    +0.000 A 
ATOM     13  C   UNL     1      35.988   6.515   9.701  0.00  0.00    +0.000 A 
ATOM     14  C   UNL     1      36.662   5.313   9.755  0.00  0.00    +0.000 A 
ATOM     15  C   UNL     1      36.396   4.358   8.759  0.00  0.00    +0.000 A 
ATOM     16  C   UNL     1      35.467   4.637   7.730  0.00  0.00    +0.000 A 
BRANCH  14  17
ATOM     17  C   UNL     1      37.645   5.035  10.811  0.00  0.00    +0.000 C 
ATOM     18  N   UNL     1      38.430   4.806  11.649  0.00  0.00    +0.000 NA
ENDBRANCH  14  17
ENDBRANCH   7  11
ENDBRANCH   1   8
BRANCH   3  19
ATOM     19  S   UNL     1      29.965   9.004   3.552  0.00  0.00    +0.000 S 
ATOM     20  O   UNL     1      31.029   9.996   3.471  0.00  0.00    +0.000 OA
ATOM     21  O   UNL     1      28.964   8.878   2.505  0.00  0.00    +0.000 OA
BRANCH  19  22
ATOM     22  N   UNL     1      29.156   9.137   5.178  0.00  0.00    +0.000 N 
ATOM     23  C   UNL     1      27.911  10.009   5.341  0.00  0.00    +0.000 A 
ATOM     24  C   UNL     1      26.631   9.436   5.193  0.00  0.00    +0.000 A 
ATOM     25  C   UNL     1      25.425  10.169   5.189  0.00  0.00    +0.000 A 
ATOM     26  C   UNL     1      25.417  11.423   5.754  0.00  0.00    +0.000 A 
ATOM     27  C   UNL     1      26.619  11.903   6.275  0.00  0.00    +0.000 A 
ATOM     28  C   UNL     1      27.863  11.235   6.029  0.00  0.00    +0.000 A 
ATOM     29  C   UNL     1      26.497   8.026   5.729  0.00  0.00    +0.000 C 
ATOM     30  C   UNL     1      27.570   7.215   5.080  0.00  0.00    +0.000 C 
ATOM     31  C   UNL     1      28.906   7.721   5.617  0.00  0.00    +0.000 C 
ENDBRANCH  19  22
ENDBRANCH   3  19
TORSDOF 5
ENDMDL
