REMARK  Name = PF-06843195.pdb
REMARK  7 active torsions:
REMARK  status: ('A' for Active; 'I' for Inactive)
REMARK    1  A    between atoms: C5_5  and  C8_8
REMARK    2  A    between atoms: N13_13  and  C14_14
REMARK    3  A    between atoms: C14_14  and  C15_15
REMARK    4  A    between atoms: C15_15  and  O16_16
REMARK    5  A    between atoms: C21_21  and  O23_23
REMARK    6  A    between atoms: O23_23  and  C24_24
REMARK    7  A    between atoms: C24_24  and  C25_25
REMARK                            x       y       z     vdW  Elec       q    Type
REMARK                         _______ _______ _______ _____ _____    ______ ____
ROOT
ATOM      1  C8  VXY A9001     -17.022  10.809  26.773  0.00  0.00    +0.000 A 
ATOM      2  N9  VXY A9001     -16.261  11.873  27.141  0.00  0.00    +0.000 NA
ATOM      3  C10 VXY A9001     -16.874  12.846  27.900  0.00  0.00    +0.000 A 
ATOM      4  N11 VXY A9001     -18.192  12.845  28.325  0.00  0.00    +0.000 NA
ATOM      5  C12 VXY A9001     -18.927  11.752  27.960  0.00  0.00    +0.000 A 
ATOM      6  N13 VXY A9001     -20.243  11.669  28.396  0.00  0.00    +0.000 N 
ATOM      7  C28 VXY A9001     -18.351  10.683  27.203  0.00  0.00    +0.000 A 
ATOM      8  N30 VXY A9001     -16.113  13.997  28.185  0.00  0.00    +0.000 N 
ATOM      9  C31 VXY A9001     -16.573  14.861  29.302  0.00  0.00    +0.000 C 
ATOM     10  C32 VXY A9001     -15.836  16.207  29.212  0.00  0.00    +0.000 C 
ATOM     11  O33 VXY A9001     -14.447  16.011  29.209  0.00  0.00    +0.000 OA
ATOM     12  C34 VXY A9001     -14.019  15.271  28.100  0.00  0.00    +0.000 C 
ATOM     13  C35 VXY A9001     -14.635  13.860  28.121  0.00  0.00    +0.000 C 
ATOM     14  F29 VXY A9001     -19.093   9.628  26.890  0.00  0.00    +0.000 F 
ATOM     15  H40 VXY A9001     -20.810  10.922  27.996  0.00  0.00    +0.000 HD
ENDROOT
BRANCH   1  20
ATOM     16  N1  VXY A9001     -14.425   7.332  23.324  0.00  0.00    +0.000 N 
ATOM     17  C2  VXY A9001     -15.082   8.184  24.168  0.00  0.00    +0.000 A 
ATOM     18  N3  VXY A9001     -16.107   7.646  24.942  0.00  0.00    +0.000 NA
ATOM     19  C4  VXY A9001     -16.699   8.503  25.791  0.00  0.00    +0.000 A 
ATOM     20  C5  VXY A9001     -16.364   9.864  25.881  0.00  0.00    +0.000 A 
ATOM     21  C6  VXY A9001     -15.317  10.307  25.046  0.00  0.00    +0.000 A 
ATOM     22  N7  VXY A9001     -14.656   9.513  24.191  0.00  0.00    +0.000 NA
ATOM     23  H36 VXY A9001     -14.695   6.367  23.263  0.00  0.00    +0.000 HD
ATOM     24  H37 VXY A9001     -13.680   7.665  22.741  0.00  0.00    +0.000 HD
ENDBRANCH   1  20
BRANCH   6  25
ATOM     25  C14 VXY A9001     -20.997  12.878  28.748  0.00  0.00    +0.000 C 
ATOM     26  C17 VXY A9001     -22.427  12.484  29.204  0.00  0.00    +0.000 C 
ATOM     27  C18 VXY A9001     -22.852  13.606  30.159  0.00  0.00    +0.000 C 
ATOM     28  N19 VXY A9001     -21.578  14.118  30.694  0.00  0.00    +0.000 N 
ATOM     29  C20 VXY A9001     -20.395  13.619  29.971  0.00  0.00    +0.000 C 
ATOM     30  C21 VXY A9001     -21.572  15.173  31.574  0.00  0.00    +0.000 C 
ATOM     31  O22 VXY A9001     -22.565  15.723  32.044  0.00  0.00    +0.000 OA
BRANCH  25  32
ATOM     32  C15 VXY A9001     -21.078  13.857  27.547  0.00  0.00    +0.000 C 
BRANCH  32  33
ATOM     33  O16 VXY A9001     -21.633  13.125  26.490  0.00  0.00    +0.000 OA
ATOM     34  H43 VXY A9001     -21.516  13.647  25.691  0.00  0.00    +0.000 HD
ENDBRANCH  32  33
ENDBRANCH  25  32
BRANCH  30  35
ATOM     35  O23 VXY A9001     -20.303  15.527  31.950  0.00  0.00    +0.000 OA
BRANCH  35  36
ATOM     36  C24 VXY A9001     -20.163  16.617  32.824  0.00  0.00    +0.000 C 
BRANCH  36  37
ATOM     37  C25 VXY A9001     -19.228  17.624  32.067  0.00  0.00    +0.000 C 
ATOM     38  F26 VXY A9001     -17.931  17.401  32.358  0.00  0.00    +0.000 F 
ATOM     39  F27 VXY A9001     -19.299  17.404  30.740  0.00  0.00    +0.000 F 
ENDBRANCH  36  37
ENDBRANCH  35  36
ENDBRANCH  30  35
ENDBRANCH   6  25
TORSDOF 7
